/*---------------------------------------------------------------------------*\
| =========                 |                                                 |
| \\      /  F ield         | OpenFOAM: The Open Source CFD Toolbox           |
|  \\    /   O peration     | Version:  v1812                                 |
|   \\  /    A nd           | Web:      www.OpenFOAM.com                      |
|    \\/     M anipulation  |                                                 |
\*---------------------------------------------------------------------------*/
FoamFile
{
    version     2.0;
    format      ascii;
    class       dictionary;
    location    "constant";
    object      waveProperties;
}
// * * * * * * * * * * * * * * * * * * * * * * * * * * * * * * * * * * * * * //

inlet
{
    alpha           alpha.water;

    waveModel       StokesII;

    nPaddle         1;

    waveHeight      0.03;

    waveAngle       0.0;

    rampTime        0.9;

    activeAbsorption yes;

    wavePeriod      0.9;
	
	wavePhase		0.0;
}

outlet
{
    alpha           alpha.water;

    waveModel       shallowWaterAbsorption;

    nPaddle         1;
}


// ************************************************************************* //
