/*--------------------------------*- C++ -*----------------------------------*\
| =========                 |                                                 |
| \\      /  F ield         | OpenFOAM: The Open Source CFD Toolbox           |
|  \\    /   O peration     | Version:  plus                                  |
|   \\  /    A nd           | Web:      www.OpenFOAM.com                      |
|    \\/     M anipulation  |                                                 |
\*---------------------------------------------------------------------------*/
FoamFile
{
    version     2.0;
    format      ascii;
    class       dictionary;
    object      blockMeshDict;
}
// * * * * * * * * * * * * * * * * * * * * * * * * * * * * * * * * * * * * * //

scale   1;

vertices
(
		( -0.3	0    -0.1)
    	(  0.3	0    -0.1)
        (  0.3	0.9  -0.1)
        ( -0.3  0.9  -0.1)

		( -0.3	0     0.1)
    	(  0.3	0     0.1)
        (  0.3	0.9   0.1)
        ( -0.3  0.9   0.1)
);

blocks
(
    hex (0 1 2 3 4 5 6 7) (120 1 40) simpleGrading (1 1 1)
);

edges
(
);

boundary
(
    sides1
    {
        type overset;
        faces
        (
            (0 3 2 1)
            (2 6 5 1)
            (0 4 7 3)
            (4 5 6 7)
        );
    }
    frontAndback1
    {
	type empty;
	faces
	(
	    (1 5 4 0)
	    (3 7 6 2)
	);
    }
    floatingObject
    {
        type wall;
        faces ();
    }
);

// ************************************************************************* //
